<?xml version="1.0" encoding="UTF-8"?>

<!-- generated on 2023-08-15 18:31:09 by Eclipse SUMO netconvert Version 1.12.0
<configuration xmlns:xsi="http://www.w3.org/2001/XMLSchema-instance" xsi:noNamespaceSchemaLocation="http://sumo.dlr.de/xsd/netconvertConfiguration.xsd">

    <input>
        <osm-files value="orlando.osm"/>
    </input>

    <output>
        <output-file value="orlando.net.xml"/>
    </output>

    <projection>
        <proj.utm value="true"/>
    </projection>

    <processing>
        <geometry.remove value="true"/>
        <roundabouts.guess value="true"/>
    </processing>

    <tls_building>
        <tls.discard-simple value="true"/>
        <tls.join value="true"/>
        <tls.guess-signals value="true"/>
    </tls_building>

    <ramp_guessing>
        <ramps.guess value="true"/>
    </ramp_guessing>

    <junctions>
        <junctions.join value="true"/>
    </junctions>

    <report>
        <aggregate-warnings value="5"/>
    </report>

</configuration>
-->

<net version="1.9" junctionCornerDetail="5" limitTurnSpeed="5.50" xmlns:xsi="http://www.w3.org/2001/XMLSchema-instance" xsi:noNamespaceSchemaLocation="http://sumo.dlr.de/xsd/net_file.xsd">

    <location netOffset="-648889.61,-5480244.87" convBoundary="0.00,0.00,2726.00,1822.57" origBoundary="11.054903,49.456316,11.092344,49.472811" projParameter="+proj=utm +zone=32 +ellps=WGS84 +datum=WGS84 +units=m +no_defs"/>

    <type id="highway.bridleway" priority="1" numLanes="1" speed="2.78" allow="pedestrian" oneway="1" width="2.00"/>
    <type id="highway.bus_guideway" priority="1" numLanes="1" speed="27.78" allow="bus" oneway="1"/>
    <type id="highway.cycleway" priority="1" numLanes="1" speed="8.33" allow="bicycle" oneway="0" width="1.00"/>
    <type id="highway.footway" priority="1" numLanes="1" speed="2.78" allow="pedestrian" oneway="1" width="2.00"/>
    <type id="highway.ford" priority="1" numLanes="1" speed="2.78" allow="army" oneway="0"/>
    <type id="highway.living_street" priority="2" numLanes="1" speed="2.78" disallow="tram rail_urban rail rail_electric rail_fast ship" oneway="0"/>
    <type id="highway.motorway" priority="14" numLanes="2" speed="39.44" allow="private emergency authority army vip passenger hov taxi bus coach delivery truck trailer motorcycle evehicle custom1 custom2" oneway="1"/>
    <type id="highway.motorway_link" priority="9" numLanes="1" speed="22.22" allow="private emergency authority army vip passenger hov taxi bus coach delivery truck trailer motorcycle evehicle custom1 custom2" oneway="1"/>
    <type id="highway.path" priority="1" numLanes="1" speed="2.78" allow="pedestrian bicycle" oneway="0" width="2.00"/>
    <type id="highway.pedestrian" priority="1" numLanes="1" speed="2.78" allow="pedestrian" oneway="1" width="2.00"/>
    <type id="highway.primary" priority="12" numLanes="2" speed="27.78" disallow="tram rail_urban rail rail_electric rail_fast ship" oneway="0"/>
    <type id="highway.primary_link" priority="7" numLanes="1" speed="22.22" disallow="tram rail_urban rail rail_electric rail_fast ship" oneway="0"/>
    <type id="highway.raceway" priority="15" numLanes="2" speed="83.33" allow="vip" oneway="0"/>
    <type id="highway.residential" priority="3" numLanes="1" speed="13.89" disallow="tram rail_urban rail rail_electric rail_fast ship" oneway="0"/>
    <type id="highway.secondary" priority="11" numLanes="1" speed="27.78" disallow="tram rail_urban rail rail_electric rail_fast ship" oneway="0"/>
    <type id="highway.secondary_link" priority="6" numLanes="1" speed="22.22" disallow="tram rail_urban rail rail_electric rail_fast ship" oneway="0"/>
    <type id="highway.service" priority="1" numLanes="1" speed="5.56" allow="pedestrian delivery bicycle" oneway="0"/>
    <type id="highway.stairs" priority="1" numLanes="1" speed="1.39" allow="pedestrian" oneway="1" width="2.00"/>
    <type id="highway.step" priority="1" numLanes="1" speed="1.39" allow="pedestrian" oneway="1" width="2.00"/>
    <type id="highway.steps" priority="1" numLanes="1" speed="1.39" allow="pedestrian" oneway="1" width="2.00"/>
    <type id="highway.tertiary" priority="10" numLanes="1" speed="22.22" disallow="tram rail_urban rail rail_electric rail_fast ship" oneway="0"/>
    <type id="highway.tertiary_link" priority="5" numLanes="1" speed="22.22" disallow="tram rail_urban rail rail_electric rail_fast ship" oneway="0"/>
    <type id="highway.track" priority="1" numLanes="1" speed="5.56" allow="pedestrian motorcycle moped bicycle" oneway="0"/>
    <type id="highway.trunk" priority="13" numLanes="2" speed="27.78" disallow="pedestrian bicycle tram rail_urban rail rail_electric rail_fast ship" oneway="0"/>
    <type id="highway.trunk_link" priority="8" numLanes="1" speed="22.22" disallow="pedestrian bicycle tram rail_urban rail rail_electric rail_fast ship" oneway="0"/>
    <type id="highway.unclassified" priority="4" numLanes="1" speed="13.89" disallow="tram rail_urban rail rail_electric rail_fast ship" oneway="0"/>
    <type id="highway.unsurfaced" priority="1" numLanes="1" speed="8.33" disallow="tram rail_urban rail rail_electric rail_fast ship" oneway="0"/>
    <type id="railway.highspeed" priority="21" numLanes="1" speed="69.44" allow="rail_fast" oneway="1"/>
    <type id="railway.light_rail" priority="19" numLanes="1" speed="27.78" allow="rail_urban" oneway="1"/>
    <type id="railway.preserved" priority="16" numLanes="1" speed="27.78" allow="rail" oneway="1"/>
    <type id="railway.rail" priority="20" numLanes="1" speed="44.44" allow="rail" oneway="1"/>
    <type id="railway.subway" priority="18" numLanes="1" speed="27.78" allow="rail_urban" oneway="1"/>
    <type id="railway.tram" priority="17" numLanes="1" speed="13.89" allow="tram" oneway="1"/>

    <edge id=":10227046922_0" function="internal">
        <lane id=":10227046922_0_0" index="0" allow="tram" speed="13.89" length="2.83" shape="2103.11,529.05 2100.28,529.01"/>
    </edge>
    <edge id=":10227046922_1" function="internal">
        <lane id=":10227046922_1_0" index="0" disallow="tram rail_urban rail rail_electric rail_fast ship" speed="13.89" length="2.70" shape="2100.14,527.57 2102.81,527.22"/>
    </edge>
    <edge id=":10227046922_2" function="internal">
        <lane id=":10227046922_2_0" index="0" disallow="tram rail_urban rail rail_electric rail_fast ship" speed="3.65" length="1.44" shape="2100.14,527.57 2101.41,528.25"/>
    </edge>
    <edge id=":10227046922_5" function="internal">
        <lane id=":10227046922_5_0" index="0" disallow="tram rail_urban rail rail_electric rail_fast ship" speed="3.65" length="3.23" shape="2101.41,528.25 2101.89,529.00 2101.57,529.84 2100.45,530.75"/>
    </edge>
    <edge id=":10227046922_3" function="internal">
        <lane id=":10227046922_3_0" index="0" disallow="tram rail_urban rail rail_electric rail_fast ship" speed="13.89" length="2.90" shape="2103.33,530.38 2100.45,530.75"/>
    </edge>
    <edge id=":10227046922_4" function="internal">
        <lane id=":10227046922_4_0" index="0" disallow="tram rail_urban rail rail_electric rail_fast ship" speed="3.65" length="4.67" shape="2103.33,530.38 2102.01,529.78 2101.49,529.06 2101.75,528.20 2102.81,527.22"/>
    </edge>
    <edge id=":10556964360_0" function="internal">
        <lane id=":10556964360_0_0" index="0" allow="pedestrian bicycle" speed="2.78" length="2.92" width="2.00" shape="1288.39,533.34 1287.70,532.76 1287.50,532.24 1287.80,531.77 1288.59,531.35"/>
    </edge>
    <edge id=":10556964364_0" function="internal">
        <lane id=":10556964364_0_0" index="0" allow="pedestrian bicycle" speed="2.78" length="6.69" width="2.00" shape="1308.00,535.43 1306.03,535.25 1304.67,535.15 1303.31,535.14 1301.33,535.18"/>
    </edge>
    <edge id=":10556964364_1" function="internal">
        <lane id=":10556964364_1_0" index="0" allow="pedestrian bicycle" speed="2.78" length="7.09" width="2.00" shape="1308.00,535.43 1306.44,534.98 1305.27,533.98 1304.49,532.41 1304.12,530.27"/>
    </edge>
    <edge id=":10556964364_2" function="internal">
        <lane id=":10556964364_2_0" index="0" allow="pedestrian bicycle" speed="2.78" length="2.92" width="2.00" shape="1308.00,535.43 1307.30,534.86 1307.10,534.34 1307.39,533.87 1308.19,533.44"/>
    </edge>
    <edge id=":10556964364_3" function="internal">
        <lane id=":10556964364_3_0" index="0" allow="pedestrian bicycle" speed="2.78" length="4.08" width="2.00" shape="1306.08,530.64 1306.03,531.78 1306.37,532.62 1307.08,533.17 1308.19,533.44"/>
    </edge>
    <edge id=":10556964364_4" function="internal">
        <lane id=":10556964364_4_0" index="0" allow="pedestrian bicycle" speed="2.78" length="7.18" width="2.00" shape="1306.08,530.64 1305.47,532.59 1304.48,533.99 1303.10,534.86 1301.33,535.18"/>
    </edge>
    <edge id=":10556964364_5" function="internal">
        <lane id=":10556964364_5_0" index="0" allow="pedestrian bicycle" speed="2.78" length="2.92" width="2.00" shape="1306.08,530.64 1305.45,531.29 1304.91,531.44 1304.47,531.10 1304.12,530.27"/>
    </edge>
    <edge id=":10556964364_6" function="internal">
        <lane id=":10556964364_6_0" index="0" allow="pedestrian bicycle" speed="2.78" length="4.68" width="2.00" shape="1301.27,533.18 1302.60,532.97 1303.51,532.41 1304.02,531.51 1304.12,530.27"/>
    </edge>
    <edge id=":10556964364_7" function="internal">
        <lane id=":10556964364_7_0" index="0" allow="pedestrian bicycle" speed="2.78" length="6.93" width="2.00" shape="1301.27,533.18 1303.33,533.14 1304.74,533.15 1306.14,533.25 1308.19,533.44"/>
    </edge>
    <edge id=":10556964364_8" function="internal">
        <lane id=":10556964364_8_0" index="0" allow="pedestrian bicycle" speed="2.78" length="2.92" width="2.00" shape="1301.27,533.18 1302.04,533.66 1302.30,534.15 1302.07,534.66 1301.33,535.18"/>
    </edge>
    <edge id=":10556964372_0" function="internal">
        <lane id=":10556964372_0_0" index="0" allow="pedestrian bicycle" speed="2.78" length="7.16" width="2.00" shape="1312.11,559.03 1311.73,566.18"/>
    </edge>
    <edge id=":10556964372_1" function="internal">
        <lane id=":10556964372_1_0" index="0" allow="pedestrian bicycle" speed="2.78" length="7.71" width="2.00" shape="1312.11,559.03 1311.66,561.16 1310.66,562.55 1309.09,563.20 1306.97,563.10"/>
    </edge>
    <edge id=":10556964372_2" function="internal">
        <lane id=":10556964372_2_0" index="0" allow="pedestrian bicycle" speed="2.78" length="2.92" width="2.00" shape="1312.11,559.03 1311.59,559.77 1311.08,560.00 1310.59,559.74 1310.11,558.97"/>
    </edge>
    <edge id=":10556964372_3" function="internal">
        <lane id=":10556964372_3_0" index="0" allow="pedestrian bicycle" speed="2.78" length="4.13" width="2.00" shape="1307.35,561.14 1308.49,561.19 1309.33,560.85 1309.87,560.11 1310.11,558.97"/>
    </edge>
    <edge id=":10556964372_4" function="internal">
        <lane id=":10556964372_4_0" index="0" allow="pedestrian bicycle" speed="2.78" length="7.39" width="2.00" shape="1307.35,561.14 1309.34,561.79 1310.74,562.84 1311.53,564.30 1311.73,566.18"/>
    </edge>
    <edge id=":10556964372_5" function="internal">
        <lane id=":10556964372_5_0" index="0" allow="pedestrian bicycle" speed="2.78" length="2.92" width="2.00" shape="1307.35,561.14 1307.99,561.77 1308.14,562.31 1307.80,562.76 1306.97,563.10"/>
    </edge>
    <edge id=":10556964372_6" function="internal">
        <lane id=":10556964372_6_0" index="0" allow="pedestrian bicycle" speed="2.78" length="4.46" width="2.00" shape="1309.73,566.04 1309.60,564.97 1309.10,564.12 1308.22,563.50 1306.97,563.10"/>
    </edge>
    <edge id=":10556964372_7" function="internal">
        <lane id=":10556964372_7_0" index="0" allow="pedestrian bicycle" speed="2.78" length="7.08" width="2.00" shape="1309.73,566.04 1310.11,558.97"/>
    </edge>
    <edge id=":10556964372_8" function="internal">
        <lane id=":10556964372_8_0" index="0" allow="pedestrian bicycle" speed="2.78" length="2.92" width="2.00" shape="1309.73,566.04 1310.28,565.33 1310.80,565.11 1311.28,565.39 1311.73,566.18"/>
    </edge>
    <edge id=":10556964377_0" function="internal">
        <lane id=":10556964377_0_0" index="0" allow="pedestrian bicycle" speed="2.78" length="2.92" width="2.00" shape="1302.66,576.18 1302.38,575.32 1302.49,574.77 1302.99,574.53 1303.89,574.60"/>
    </edge>
    <edge id=":10556964383_0" function="internal">
        <lane id=":10556964383_0_0" index="0" allow="pedestrian bicycle" speed="2.78" length="2.94" width="2.00" shape="1295.98,522.88 1295.68,522.02 1295.78,521.47 1296.28,521.22 1297.19,521.26"/>
    </edge>
    <edge id=":10556964385_0" function="internal">
        <lane id=":10556964385_0_0" index="0" allow="pedestrian bicycle" speed="2.78" length="2.92" width="2.00" shape="1302.91,562.64 1302.21,562.07 1302.01,561.54 1302.31,561.07 1303.11,560.65"/>
    </edge>
    <edge id=":10578945520_0" function="internal">
        <lane id=":10578945520_0_0" index="0" allow="pedestrian delivery bicycle" speed="5.56" length="9.40" shape="1871.91,1406.77 1862.51,1406.84"/>
    </edge>
    <edge id=":10578945520_1" function="internal">
        <lane id=":10578945520_1_0" index="0" allow="pedestrian delivery bicycle" speed="5.56" length="10.17" shape="1871.91,1406.77 1869.14,1406.40 1867.16,1405.23 1865.97,1403.27 1865.57,1400.51"/>
    </edge>
    <edge id=":10578945520_2" function="internal">
        <lane id=":10578945520_2_0" index="0" allow="pedestrian delivery bicycle" speed="3.65" length="4.67" shape="1871.91,1406.77 1870.71,1405.98 1870.30,1405.18 1870.69,1404.38 1871.89,1403.57"/>
    </edge>
    <edge id=":10578945520_3" function="internal">
        <lane id=":10578945520_3_0" index="0" allow="pedestrian delivery bicycle" speed="5.04" length="5.01" shape="1868.77,1400.48 1868.97,1401.84 1869.55,1402.81 1870.53,1403.39 1871.89,1403.57"/>
    </edge>
    <edge id=":10578945520_4" function="internal">
        <lane id=":10578945520_4_0" index="0" allow="pedestrian delivery bicycle" speed="5.56" length="10.17" shape="1868.77,1400.48 1868.38,1403.25 1867.21,1405.23 1865.25,1406.43 1862.51,1406.84"/>
    </edge>
    <edge id=":10578945520_5" function="internal">
        <lane id=":10578945520_5_0" index="0" allow="pedestrian delivery bicycle" speed="3.65" length="4.67" shape="1868.77,1400.48 1867.98,1401.69 1867.19,1402.10 1866.39,1401.70 1865.57,1400.51"/>
    </edge>
    <edge id=":10578945520_6" function="internal">
        <lane id=":10578945520_6_0" index="0" allow="pedestrian delivery bicycle" speed="5.05" length="5.00" shape="1862.49,1403.64 1863.84,1403.44 1864.80,1402.85 1865.38,1401.87 1865.57,1400.51"/>
    </edge>
    <edge id=":10578945520_7" function="internal">
        <lane id=":10578945520_7_0" index="0" allow="pedestrian delivery bicycle" speed="5.56" length="9.40" shape="1862.49,1403.64 1871.89,1403.57"/>
    </edge>
    <edge id=":10578945520_8" function="internal">
        <lane id=":10578945520_8_0" index="0" allow="pedestrian delivery bicycle" speed="3.65" length="4.67" shape="1862.49,1403.64 1863.69,1404.43 1864.10,1405.23 1863.70,1406.03 1862.51,1406.84"/>
    </edge>
    <edge id=":10578945524_0" function="internal">
        <lane id=":10578945524_0_0" index="0" allow="pedestrian delivery bicycle" speed="5.56" length="9.39" shape="1813.29,1369.05 1803.91,1369.31"/>
    </edge>
    <edge id=":10578945524_1" function="internal">
        <lane id=":10578945524_1_0" index="0" allow="pedestrian delivery bicycle" speed="5.56" length="10.23" shape="1813.29,1369.05 1810.50,1368.73 1808.50,1367.59 1807.28,1365.63 1806.85,1362.85"/>
    </edge>
    <edge id=":10578945524_2" function="internal">
        <lane id=":10578945524_2_0" index="0" allow="pedestrian delivery bicycle" speed="3.65" length="4.67" shape="1813.29,1369.05 1812.07,1368.28 1811.65,1367.49 1812.03,1366.68 1813.21,1365.85"/>
    </edge>
    <edge id=":10578945524_3" function="internal">
        <lane id=":10578945524_3_0" index="0" allow="pedestrian delivery bicycle" speed="5.03" length="5.02" shape="1810.05,1362.81 1810.26,1364.17 1810.86,1365.13 1811.84,1365.69 1813.21,1365.85"/>
    </edge>
    <edge id=":10578945524_4" function="internal">
        <lane id=":10578945524_4_0" index="0" allow="pedestrian delivery bicycle" speed="5.56" length="10.16" shape="1810.05,1362.81 1809.69,1365.59 1808.55,1367.60 1806.62,1368.84 1803.91,1369.31"/>
    </edge>
    <edge id=":10578945524_5" function="internal">
        <lane id=":10578945524_5_0" index="0" allow="pedestrian delivery bicycle" speed="3.65" length="4.67" shape="1810.05,1362.81 1809.26,1364.02 1808.47,1364.43 1807.66,1364.04 1806.85,1362.85"/>
    </edge>
    <edge id=":10578945524_6" function="internal">
        <lane id=":10578945524_6_0" index="0" allow="pedestrian delivery bicycle" speed="5.09" length="5.06" shape="1803.81,1366.11 1805.16,1365.88 1806.11,1365.25 1806.67,1364.25 1806.85,1362.85"/>
    </edge>
    <edge id=":10578945524_7" function="internal">
        <lane id=":10578945524_7_0" index="0" allow="pedestrian delivery bicycle" speed="5.56" length="9.40" shape="1803.81,1366.11 1813.21,1365.85"/>
    </edge>
    <edge id=":10578945524_8" function="internal">
        <lane id=":10578945524_8_0" index="0" allow="pedestrian delivery bicycle" speed="3.65" length="4.67" shape="1803.81,1366.11 1805.04,1366.88 1805.46,1367.66 1805.08,1368.48 1803.91,1369.31"/>
    </edge>
    <edge id=":10578945526_0" function="internal">
        <lane id=":10578945526_0_0" index="0" allow="pedestrian delivery bicycle" speed="3.65" length="4.67" shape="1772.33,1380.20 1771.50,1381.37 1770.69,1381.75 1769.90,1381.33 1769.14,1380.11"/>
    </edge>
    <edge id=":10581407278_0" function="internal">
        <lane id=":10581407278_0_0" index="0" disallow="tram rail_urban rail rail_electric rail_fast ship" speed="8.33" length="5.00" shape="1701.71,1289.15 1701.45,1294.14"/>
    </edge>
    <edge id=":10581407278_1" function="internal">
        <lane id=":10581407278_1_0" index="0" disallow="tram rail_urban rail rail_electric rail_fast ship" speed="8.33" length="4.99" shape="1698.25,1293.97 1698.51,1288.98"/>
    </edge>
    <edge id=":10581407286_0" function="internal">
        <lane id=":10581407286_0_0" index="0" disallow="tram rail_urban rail rail_electric rail_fast ship" speed="8.33" length="5.00" shape="1700.94,1303.68 1700.68,1308.67"/>
    </edge>
    <edge id=":10581407286_1" function="internal">
        <lane id=":10581407286_1_0" index="0" disallow="tram rail_urban rail rail_electric rail_fast ship" speed="8.33" length="5.00" shape="1697.48,1308.50 1697.75,1303.51"/>
    </edge>
    <edge id=":10581407292_0" function="internal">
        <lane id=":10581407292_0_0" index="0" allow="pedestrian bicycle" speed="2.78" length="2.92" width="2.00" shape="1743.26,1291.03 1742.54,1290.49 1742.31,1289.98 1742.58,1289.49 1743.36,1289.03"/>
    </edge>
    <edge id=":10581407300_0" function="internal">
        <lane id=":10581407300_0_0" index="0" disallow="tram rail_urban rail rail_electric rail_fast ship" speed="13.89" length="3.80" shape="1745.30,1375.95 1741.50,1375.82"/>
    </edge>
    <edge id=":10581407300_1" function="internal">
        <lane id=":10581407300_1_0" index="0" disallow="tram rail_urban rail rail_electric rail_fast ship" speed="13.89" length="4.60" shape="1741.61,1372.62 1746.21,1372.78"/>
    </edge>
    <edge id=":10617973689_0" function="internal">
        <lane id=":10617973689_0_0" index="0" allow="pedestrian bicycle" speed="2.78" length="5.00" width="2.00" shape="1975.20,1013.13 1974.62,1018.09"/>
    </edge>
    <edge id=":10657822966_0" function="internal">
        <lane id=":10657822966_0_0" index="0" allow="pedestrian bicycle" speed="2.78" length="2.92" width="2.00" shape="1606.10,1059.64 1605.36,1059.12 1605.13,1058.61 1605.40,1058.12 1606.16,1057.64"/>
    </edge>
    <edge id=":10657822975_0" function="internal">
        <lane id=":10657822975_0_0" index="0" disallow="tram rail_urban rail rail_electric rail_fast ship" speed="2.78" length="5.00" shape="1678.44,1100.86 1673.44,1100.75"/>
    </edge>
    <edge id=":10657822975_1" function="internal">
        <lane id=":10657822975_1_0" index="0" disallow="tram rail_urban rail rail_electric rail_fast ship" speed="2.78" length="5.00" shape="1673.52,1097.55 1678.52,1097.66"/>
    </edge>
    <edge id=":10657822998_0" function="internal">
        <lane id=":10657822998_0_0" index="0" disallow="tram rail_urban rail rail_electric rail_fast ship" speed="8.33" length="5.22" shape="1755.14,1101.38 1760.36,1101.54"/>
    </edge>
    <edge id=":10657823003_0" function="internal">
        <lane id=":10657823003_0_0" index="0" disallow="tram rail_urban rail rail_electric rail_fast ship" speed="8.33" length="5.26" shape="1824.88,1103.53 1830.14,1103.69"/>
    </edge>
    <edge id=":10657864811_0" function="internal">
        <lane id=":10657864811_0_0" index="0" disallow="tram rail_urban rail rail_electric rail_fast ship" speed="8.33" length="5.00" shape="1916.77,1106.35 1921.76,1106.51"/>
    </edge>
    <edge id=":10669048522_0" function="internal">
        <lane id=":10669048522_0_0" index="0" disallow="pedestrian tram rail_urban rail rail_electric rail_fast ship" speed="13.89" length="12.74" shape="1292.16,488.70 1288.49,500.90"/>
        <lane id=":10669048522_0_1" index="1" disallow="pedestrian tram rail_urban rail rail_electric rail_fast ship" speed="13.89" length="12.74" shape="1289.10,487.77 1285.43,499.97"/>
    </edge>
    <edge id=":10669048522_2" function="internal">
        <lane id=":10669048522_2_0" index="0" allow="tram" speed="13.89" length="12.37" shape="1288.26,489.50 1288.98,492.80 1289.69,495.61 1290.83,498.18 1292.84,500.78"/>
    </edge>
    <edge id=":10669048523_0" function="internal">
        <lane id=":10669048523_0_0" index="0" disallow="tram rail_urban rail rail_electric rail_fast ship" speed="13.89" length="3.00" shape="1308.49,510.91 1305.50,510.79"/>
    </edge>
    <edge id=":10669048523_1" function="internal">
        <lane id=":10669048523_1_0" index="0" disallow="tram rail_urban rail rail_electric rail_fast ship" speed="13.89" length="3.00" shape="1305.62,507.59 1308.62,507.71"/>
    </edge>
    <edge id=":10669048523_2" function="internal">
        <lane id=":10669048523_2_0" index="0" allow="tram" speed="13.89" length="3.04" shape="1305.57,508.94 1306.44,509.19 1307.04,509.30 1307.66,509.37 1308.55,509.51"/>
    </edge>
    <edge id=":10669048524_0" function="internal">
        <lane id=":10669048524_0_0" index="0" disallow="tram rail_urban rail rail_electric rail_fast ship" speed="13.89" length="12.16" shape="1298.41,510.58 1286.25,510.22"/>
    </edge>
    <edge id=":10669048524_1" function="internal">
        <lane id=":10669048524_1_0" index="0" disallow="tram rail_urban rail rail_electric rail_fast ship" speed="13.89" length="4.41" shape="1286.34,507.03 1290.75,507.16"/>
    </edge>
    <edge id=":10669048524_2" function="internal">
        <lane id=":10669048524_2_0" index="0" allow="tram" speed="13.89" length="6.65" shape="1290.06,508.40 1291.93,507.83 1293.26,507.64 1294.63,507.60 1296.60,507.50"/>
    </edge>
    <edge id=":10669048525_0" function="internal">
        <lane id=":10669048525_0_0" index="0" disallow="pedestrian tram rail_urban rail rail_electric rail_fast ship" speed="13.89" length="5.72" shape="1285.33,511.35 1283.56,516.79"/>
        <lane id=":10669048525_0_1" index="1" disallow="pedestrian tram rail_urban rail rail_electric rail_fast ship" speed="13.89" length="5.72" shape="1282.29,510.35 1280.52,515.79"/>
    </edge>
    <edge id=":10669048525_2" function="internal">
        <lane id=":10669048525_2_0" index="0" allow="tram" speed="13.89" length="6.36" shape="1284.24,511.33 1285.77,510.25 1286.89,509.60 1288.09,509.10 1289.87,508.47"/>
    </edge>
    <edge id=":10669048526_0" function="internal">
        <lane id=":10669048526_0_0" index="0" disallow="tram rail_urban rail rail_electric rail_fast ship" speed="13.89" length="0.67" shape="1280.86,510.20 1280.19,510.20"/>
    </edge>
    <edge id=":10669048526_1" function="internal">
        <lane id=":10669048526_1_0" index="0" allow="tram" speed="13.89" length="8.16" shape="1283.23,503.44 1280.57,511.15"/>
    </edge>
    <edge id=":10669048526_2" function="internal">
        <lane id=":10669048526_2_0" index="0" disallow="tram rail_urban rail rail_electric rail_fast ship" speed="13.89" length="0.65" shape="1280.18,507.00 1280.83,507.00"/>
    </edge>
    <edge id=":10839255901_0" function="internal">
        <lane id=":10839255901_0_0" index="0" allow="pedestrian delivery bicycle" speed="5.06" length="4.99" shape="1999.61,1249.96 1998.26,1250.16 1997.29,1250.74 1996.70,1251.70 1996.49,1253.05"/>
    </edge>
    <edge id=":10839255901_1" function="internal">
        <lane id=":10839255901_1_0" index="0" allow="pedestrian delivery bicycle" speed="5.56" length="9.35" shape="1999.61,1249.96 1990.26,1249.84"/>
    </edge>
    <edge id=":10839255901_2" function="internal">
        <lane id=":10839255901_2_0" index="0" allow="pedestrian delivery bicycle" speed="3.65" length="4.67" shape="1999.61,1249.96 1998.40,1249.16 1998.00,1248.36 1998.40,1247.56 1999.60,1246.76"/>
    </edge>
    <edge id=":10839255901_3" function="internal">
        <lane id=":10839255901_3_0" index="0" allow="pedestrian delivery bicycle" speed="5.56" length="9.25" shape="1990.34,1246.65 1999.60,1246.76"/>
    </edge>
    <edge id=":10839255901_4" function="internal">
        <lane id=":10839255901_4_0" index="0" allow="pedestrian delivery bicycle" speed="5.56" length="10.10" shape="1990.34,1246.65 1993.07,1247.11 1995.00,1248.33 1996.14,1250.32 1996.49,1253.05"/>
    </edge>
    <edge id=":10839255901_5" function="internal">
        <lane id=":10839255901_5_0" index="0" allow="pedestrian delivery bicycle" speed="3.65" length="4.67" shape="1990.34,1246.65 1991.52,1247.48 1991.90,1248.29 1991.48,1249.08 1990.26,1249.84"/>
    </edge>
    <edge id=":10839255901_6" function="internal">
        <lane id=":10839255901_6_0" index="0" allow="pedestrian delivery bicycle" speed="5.05" length="4.98" shape="1993.29,1253.01 1993.12,1251.66 1992.55,1250.68 1991.60,1250.07 1990.26,1249.84"/>
    </edge>
    <edge id=":10839255901_7" function="internal">
        <lane id=":10839255901_7_0" index="0" allow="pedestrian delivery bicycle" speed="5.56" length="10.09" shape="1993.29,1253.01 1993.72,1250.28 1994.91,1248.33 1996.87,1247.16 1999.60,1246.76"/>
    </edge>
    <edge id=":10839255901_8" function="internal">
        <lane id=":10839255901_8_0" index="0" allow="pedestrian delivery bicycle" speed="3.65" length="4.67" shape="1993.29,1253.01 1994.11,1251.82 1994.91,1251.43 1995.71,1251.84 1996.49,1253.05"/>
    </edge>
    <edge id=":10839255902_0" function="internal">
        <lane id=":10839255902_0_0" index="0" allow="pedestrian delivery bicycle" speed="3.65" length="4.67" shape="1996.31,1265.15 1995.49,1266.34 1994.69,1266.73 1993.89,1266.32 1993.11,1265.11"/>
    </edge>
    <edge id=":10839255903_0" function="internal">
        <lane id=":10839255903_0_0" index="0" allow="pedestrian delivery bicycle" speed="5.13" length="5.11" shape="2011.02,1249.95 2009.67,1250.15 2008.70,1250.75 2008.10,1251.76 2007.87,1253.17"/>
    </edge>
    <edge id=":10839255903_1" function="internal">
        <lane id=":10839255903_1_0" index="0" allow="pedestrian delivery bicycle" speed="5.56" length="9.41" shape="2011.02,1249.95 2001.61,1249.95"/>
    </edge>
    <edge id=":10839255903_2" function="internal">
        <lane id=":10839255903_2_0" index="0" allow="pedestrian delivery bicycle" speed="3.65" length="4.67" shape="2011.02,1249.95 2009.82,1249.15 2009.42,1248.35 2009.82,1247.55 2011.02,1246.75"/>
    </edge>
    <edge id=":10839255903_3" function="internal">
        <lane id=":10839255903_3_0" index="0" allow="pedestrian delivery bicycle" speed="5.56" length="9.41" shape="2001.61,1246.75 2011.02,1246.75"/>
    </edge>
    <edge id=":10839255903_4" function="internal">
        <lane id=":10839255903_4_0" index="0" allow="pedestrian delivery bicycle" speed="5.56" length="10.30" shape="2001.61,1246.75 2004.41,1247.15 2006.39,1248.35 2007.54,1250.36 2007.87,1253.17"/>
    </edge>
    <edge id=":10839255903_5" function="internal">
        <lane id=":10839255903_5_0" index="0" allow="pedestrian delivery bicycle" speed="3.65" length="4.67" shape="2001.61,1246.75 2002.81,1247.55 2003.21,1248.35 2002.81,1249.15 2001.61,1249.95"/>
    </edge>
    <edge id=":10839255903_6" function="internal">
        <lane id=":10839255903_6_0" index="0" allow="pedestrian delivery bicycle" speed="5.01" length="5.03" shape="2004.67,1253.09 2004.51,1251.71 2003.95,1250.73 2002.98,1250.15 2001.61,1249.95"/>
    </edge>
    <edge id=":10839255903_7" function="internal">
        <lane id=":10839255903_7_0" index="0" allow="pedestrian delivery bicycle" speed="5.56" length="10.17" shape="2004.67,1253.09 2005.13,1250.31 2006.34,1248.33 2008.31,1247.14 2011.02,1246.75"/>
    </edge>
    <edge id=":10839255903_8" function="internal">
        <lane id=":10839255903_8_0" index="0" allow="pedestrian delivery bicycle" speed="3.65" length="4.67" shape="2004.67,1253.09 2005.50,1251.91 2006.31,1251.53 2007.10,1251.95 2007.87,1253.17"/>
    </edge>
    <edge id=":10839322305_0" function="internal">
        <lane id=":10839322305_0_0" index="0" allow="pedestrian delivery bicycle" speed="3.65" length="4.67" shape="2031.03,1258.09 2032.21,1258.92 2032.59,1259.73 2032.17,1260.52 2030.95,1261.29"/>
    </edge>
    <edge id=":1089028723_0" function="internal">
        <lane id=":1089028723_0_0" index="0" disallow="tram rail_urban rail rail_electric rail_fast ship" speed="13.89" length="9.44" shape="2006.60,618.88 2006.39,609.44"/>
    </edge>
    <edge id=":1089028723_1" function="internal">
        <lane id=":1089028723_1_0" index="0" allow="pedestrian delivery bicycle" speed="6.41" length="7.97" shape="2006.60,618.88 2006.74,616.17 2007.31,614.16 2008.31,612.87 2009.73,612.29"/>
    </edge>