<?xml version="1.0" encoding="UTF-8"?>

<!-- generated on 2023-08-15 18:49:44 by Eclipse SUMO duarouter Version 1.12.0
<configuration xmlns:xsi="http://www.w3.org/2001/XMLSchema-instance" xsi:noNamespaceSchemaLocation="http://sumo.dlr.de/xsd/duarouterConfiguration.xsd">

    <input>
        <net-file value="orlando.net.xml"/>
        <route-files value="orlando.trips.xml"/>
    </input>

    <output>
        <output-file value="orlando.rou.xml"/>
        <alternatives-output value="orlando.rou.alt.xml"/>
    </output>

    <report>
        <ignore-errors value="true"/>
    </report>

</configuration>
-->

<routes xmlns:xsi="http://www.w3.org/2001/XMLSchema-instance" xsi:noNamespaceSchemaLocation="http://sumo.dlr.de/xsd/routes_file.xsd">
    <vehicle id="1" depart="1.00">
        <route edges="-4992573#0 5116357#1 4863483#0 4863483#1 4863483#2 -4863483#2"/>
    </vehicle>
    <vehicle id="2" depart="2.00">
        <route edges="438993482#0 -438993482#0 -139180055 149775756 228336106#0 228336106#2 228336105#0 488582586 438394130 31637091 134963209#0 70835084#1 302934092#0 302934092#1 304114783#5"/>
    </vehicle>
    <vehicle id="3" depart="3.00">
        <route edges="60237431#2 60237431#3 60237431#4 31637089#0 31637089#1 31637089#2 31637089#3 438394126 438394125 251115901 439112322 438394130 31637091 134963209#0 70835084#1 304114783#8 139180058#1 351654002#0 351654002#1 351654002#2 351654002#3 139028902#0 139028902#2 -139028902#2 -139028902#0"/>
    </vehicle>
    <vehicle id="4" depart="4.00">
        <route edges="132263163#2 31637093 132278178#1 132278178#2 -488582586 -228336105#1 -1013203759 -228336106#0 -488582588 139180055 438993482#0 214208148#2 69775600 883287851 -449586350#0 -69775595#5 -69775595#4 -69775595#3 -69775595#2 -69775595#1 -69775595#0 4858965#1 4858965#3 4858965#4 136458346#0 136458346#1 136458346#2 136458346#3 -136458346#3 -136458346#2 -136458346#1"/>
    </vehicle>
    <vehicle id="5" depart="5.00">
        <route edges="-4858965#6 -4858965#5 4979727#0 4979727#1 4979727#2 4979727#3 4979727#4 4979727#5 4979727#6 31916936#0 138252406#1 138252406#2 138252406#3"/>
    </vehicle>
    <vehicle id="6" depart="6.00">
        <route edges="-136458345#2 -136458345#1 -136458345#0 -4858965#12 -4858965#11 -4858965#10 -4858965#9 -4858965#8 -4858965#7 -4858965#6 -4858965#5 4979727#0 4979727#1 4979727#2 4979727#3 4979727#4 4979727#5 4979727#6 31916936#0 31916936#3 31916936#6 30368915#0 5000714#1 5000714#2 5000714#3 5000714#4 47401904#2 47401904#3 47401904#5 -47401904#7"/>
    </vehicle>
    <vehicle id="7" depart="7.00">
        <route edges="251116706#2 251116706#3 251116705#0 251116705#2 47313949#0 47313949#1 47313949#2 136510155 138236774#0 138236774#1 138236774#2 138236774#3 438394127#2 438394128#2 304114783#2 304114783#3 304114783#4 304114783#5 304114783#6 304114783#7 304114783#8 351653997 251115898#0 132278181#0 132278181#2 132278178#1 132278178#2 -488582586 -228336105#1 -1013203759 -228336106#0 -488582588 139180055"/>
    </vehicle>
    <vehicle id="8" depart="8.00">
        <route edges="-4858965#7 -4858965#6 136458347#0 136458347#2 136458347#3 136458347#5 184052760#0"/>
    </vehicle>
    <vehicle id="9" depart="9.00">
        <route edges="4979727#3 4979727#4 4979727#5 4979727#6 31916936#0 31916936#3 31916936#6 30368915#0 5000714#1 5000714#2 5000714#3 5000714#4 47401904#2 47401904#3 47401904#5 47401904#8 47401904#11 137887472 25314035 137968437#1 1019981124#0 1019981124#1 1019981124#3 1019981124#4 1019981124#6 1019981124#7 -1019981124#7 -1019981124#6 -1019981124#5"/>
    </vehicle>
    <vehicle id="10" depart="10.00">
        <route edges="4979727#0 4979727#1 4979727#2 4979727#3 4979727#4 4979727#5 4979727#6 31916936#0 31916936#3 31916936#6 30368915#0 5000714#1 5000714#2 5000714#3 5000714#4 47401904#2 47401904#3 47401904#5 47401904#8 47401904#11 137887472 25314035 -310942163#1 -4992525#4 -4992525#3 -4992525#2 -4992525#1 149775756 228336106#0 228336106#2 228336105#0 488582586 -132278178#2 -132278178#1 -31637093 -132263163#2 -132263163#1 715995281 132263163#2 31637093"/>
    </vehicle>
    <vehicle id="11" depart="11.00">
        <route edges="-69775594#5 -69775594#4 -69775594#2 148673544#4 -4983903#4 -4983903#3 -5047762#4 -5047762#3 -5047762#2 -5047762#0 -29986485#0"/>
    </vehicle>
    <vehicle id="12" depart="12.00">
        <route edges="70835084#1 302934092#0 302934092#1 -139184570#0 -69775594#9 -69775594#5 -69775594#4 -69775594#2 -69775594#1 -69775594#0 -449586350#1 -449586350#0 -69775595#5 -69775595#4 -69775595#3 -69775595#2 -69775595#1"/>
    </vehicle>
    <vehicle id="13" depart="13.00">
        <route edges="-139180045#0 31307128#1 351653997 251115898#0 251115900#0 251115900#2 -132263163#2 -132263163#1 139180050#0 139180050#2 -139180050#3"/>
    </vehicle>
    <vehicle id="14" depart="14.00">
        <route edges="5009670#1 5009670#2 5009670#3 5009670#4 5075032#0 5075032#1 5075032#2 5047762#3 5047762#4 4983903#3 4983903#4 -148673544#4 -148673544#3 -148673544#2 -148673544#1 -139180055 149775756 228336106#0"/>
    </vehicle>
    <vehicle id="15" depart="15.00">
        <route edges="4979727#1 4979727#2 4979727#3 4979727#4 4979727#5 4979727#6 31916936#0 31916936#3 31916936#6 138294878#1 138294878#2 138294878#3 138294878#4 -5116357#1 -5116357#0 -438993482#2 -438993482#1 -438993482#0 438993482#0"/>
    </vehicle>
    <vehicle id="16" depart="16.00">
        <route edges="139180045#2 139184570#0 213895389#0 213895389#1 439112332#0 439112332#1 410085400#0 410085400#1 410085400#2 251115899#0 251115899#2 739669750 31107064 251116707#0 251116707#1 82094009#0 82094009#2 82094009#3 82094009#4"/>
    </vehicle>
    <vehicle id="17" depart="17.00">
        <route edges="-70259631#2 -70259631#1 -70259631#0 70259631#0 70259631#1 70259631#2 304114783#2 304114783#3 304114783#4 139184568#1"/>
    </vehicle>
    <vehicle id="18" depart="18.00">
        <route edges="4992525#2 4992525#3 4992525#4 310942161 -310942163#1 -4992525#4 -4992525#3 -4992525#2 -4992525#1 149775756 228336106#0 228336106#2 228336105#0 488582586 438394130 31637091 134963209#0 70835084#1 302934092#0 302934092#1 213895389#0 213895389#1 439112332#0 439112332#1 410085400#0 410085400#1 410085400#2 251115899#0 251115899#2 739669750 31107064 251116707#0 251116707#1 251116698#0 251116698#1"/>
    </vehicle>
    <vehicle id="19" depart="19.00">
        <route edges="5047733#0 5047733#1 5047733#2 5047733#3 5047733#4 -139180050#3 -139180050#1 715995281 132263163#2 31637093 132278178#1 132278178#2 438394130 31637091 139180063#1 139180038#1 -69775606#1 -69775606#0 -69775601#3 148673544#3"/>
    </vehicle>
    <vehicle id="20" depart="20.00">
        <route edges="31637091 134963209#0 70835084#1 302934092#0 302934092#1 213895389#0 213895389#1 439112332#0 439112332#1 -16384647#4 138248586 -138248584#4 -138248584#3 -138248584#2 -138248584#1"/>
    </vehicle>
    <vehicle id="21" depart="21.00">
        <route edges="-4863483#2 4863483#2 47401904#3 47401904#5 47401904#8 47401904#11 137887472 25314035 -310942163#1 -4992525#4 -4992525#3 -4992525#2 -4992525#1 149775756 228336106#0 228336106#2 228336105#0 488582586 -132278178#2 -132278178#1 -31637093 -132263163#2 -132263163#1 139180050#0 139180050#2 -5047733#4"/>
    </vehicle>
    <vehicle id="22" depart="22.00">
        <route edges="-138252407#1 69775595#0 69775595#1 69775595#2 69775595#3 69775595#4 69775595#5 449586350#0 -883287851 -69775600 -214208148#2 -438993482#0 -139180055 149775756 228336106#0 -228336106#0 -488582588"/>
    </vehicle>
    <vehicle id="23" depart="23.00">
        <route edges="-139180050#3 -139180050#1 715995281 132263163#2 31637093 132278178#1 132278178#2 -488582586 -228336105#1 -1013203759 -228336106#0 -488582588 4992525#1 4992525#2 4992525#3 4992525#4 310942161 -25314035 -137887472 -47401904#11 -47401904#10 -47401904#7 -5009671"/>
    </vehicle>
    <vehicle id="24" depart="24.00">
        <route edges="251116700 251116706#0 251116706#1 251116706#2 251116706#3 251116705#0 251116705#2 47313949#0 47313949#1 47313949#2 136510155 138236774#0 138236774#1 138236774#2 138236774#3 438394127#2 438394128#2 -70259631#2 -70259631#1 -70259631#0 -70259635#0 70259630#1 -139028912 -70259630#11 -70259630#10 -70259630#9 -70259630#8"/>
    </vehicle>
    <vehicle id="25" depart="25.00">
        <route edges="-70259630#5 -70259630#3 -70259630#1 -70259630#0 70259631#0 70259631#1 70259631#2 304114783#2 304114783#3 304114783#4 -139184570#0 -69775594#9 -69775594#5 -69775594#4 -69775594#2 -69775594#1 -69775594#0 -449586350#1 -449586350#0 -69775595#5 -69775595#4 -69775595#3 -69775595#2 -69775595#1 -69775595#0 4858965#1 4858965#3 4858965#4 -4858965#4 -4858965#3"/>
    </vehicle>
    <vehicle id="26" depart="26.00">
        <route edges="-4983903#4 4983903#4 -148673544#4 69775594#2 69775594#4 69775594#5 69775594#9 139184570#0 213895389#0 213895389#1 -70259631#2 -70259631#1 -70259631#0 -70259635#0 70259630#1"/>
    </vehicle>
    <vehicle id="27" depart="27.00">
        <route edges="251116706#1 251116706#2 251116706#3 251116705#0 251116705#2 47313949#0 47313949#1 47313949#2 136510155 138236774#0 138236774#1 138236774#2 138236774#3 438394127#2 438394128#2 304114783#2 304114783#3 304114783#4 304114783#5 304114783#6 304114783#7 304114783#8 351653997 251115898#0"/>
    </vehicle>
    <vehicle id="28" depart="28.00">
        <route edges="-31637087#2 138013217 -139180050#9 -139180050#8 -139180050#4 -139180050#3 -139180050#1 715995281 132263163#2 31637093 132278178#1 132278178#2 -488582586 -228336105#1 -1013203759 -228336106#0 -488582588 139180055 438993482#0"/>
    </vehicle>
    <vehicle id="29" depart="29.00">
        <route edges="-30368912#2 -30368912#1 251116699#0 251116699#1 251116699#4 251116708#0 251116708#1 251116700 890177706#1 82094009#0 82094009#2 82094009#3 82094009#4 82094009#5 -82094009#5 -82094009#4 -82094009#3"/>
    </vehicle>
    <vehicle id="30" depart="30.00">
        <route edges="890177706#1 82094009#0 82094009#2 82094009#3 82094009#4 82094009#5 -82094009#5 -82094009#4 -82094009#3 -82094009#2 -82094009#1 895232219#0 251116700 251116706#0 251116706#1"/>
    </vehicle>
    <vehicle id="31" depart="31.00">
        <route edges="139180063#1 139180043 228336105#0 488582586 -488582586 -228336105#1 -1013203759 -228336106#0 -488582588 4992525#1 4992525#2 4992525#3 4992525#4 310942161"/>
    </vehicle>
    <vehicle id="32" depart="32.00">
        <route edges="5000714#4 47401904#2 -4863483#2 -4863483#1 -4863483#0 4863483#0"/>
    </vehicle>
    <vehicle id="33" depart="33.00">
        <route edges="-4863484#2 -4863483#2 4894486#6 -30368915#0 -31916936#6 -31916936#3 138252406#1 138252406#2 138252406#3 138252406#4 4858965#1 4858965#3 4858965#4 136458346#0 136458346#1 136458346#2 136458346#3 -136458346#3"/>
    </vehicle>
    <vehicle id="35" depart="35.00">
        <route edges="-4858965#11 -4858965#10 -4858965#9 -4858965#8 -4858965#7 -4858965#6 -4858965#5 -4858965#4 -4858965#3 -4858965#1 69775595#0 69775595#1 69775595#2 69775595#3 69775595#4 69775595#5 449586350#0 449586350#1 69775594#0 69775594#1 69775594#2 69775594#4 69775594#5 69775594#9 139184570#0 213895389#0 213895389#1 -70259631#2 -70259631#1 -70259631#0 -70259635#0 70259630#1 70259630#3"/>
    </vehicle>
    <vehicle id="36" depart="36.00">
        <route edges="5075032#2 -5047762#2 -5047762#0 -29986485#0 251116698#2 251116698#4 338697374 338697375 251116703#0 30368912#1 30368912#2 30368912#3 30368912#5 68269035#0 68269035#3 68269035#4 68269035#5 68269035#6 68269035#7 68269035#8 -68269035#8 -68269035#7 -68269035#6 -68269035#5"/>
    </vehicle>
    <vehicle id="37" depart="37.00">
        <route edges="251116708#0 251116708#1 251116700 890177706#1 251116698#0 251116698#1 251116698#2 251116698#4 338697374 338697375 251116703#0 251116699#0 251116699#1 251116699#4 -9651925#1"/>
    </vehicle>
    <vehicle id="38" depart="38.00">
        <route edges="69775594#1 69775594#2 69775594#4 69775594#5 69775594#9 139184570#0 213895389#0 213895389#1 439112332#0 439112332#1 410085400#0 410085400#1 410085400#2 251115899#0 251115899#2 30702065 47313949#0 47313949#1 47313949#2 138234268#0"/>
    </vehicle>
    <vehicle id="39" depart="39.00">
        <route edges="-4983903#3 -5047762#4 -5047762#3 -5047762#2 -5047762#0 -29986485#0 251116698#2 251116698#4 338697374 338697375 251116703#0 251116699#0 251116699#1 4979814#0 4979814#1 4979814#2 -4979814#2 -4979814#1 -4979814#0"/>
    </vehicle>
    <vehicle id="40" depart="40.00">
        <route edges="139184570#0 213895389#0 304114783#3 304114783#4 304114783#5 304114783#6 304114783#7 304114783#8 351653997 251115898#0 132278181#0 132278181#2 132278178#1 132278178#2 -488582586 -228336105#1 -1013203759 -228336106#0 -488582588 4992525#1 4992525#2 4992525#3 4992525#4 310942161 -310942163#1 -4992525#4"/>
    </vehicle>
    <vehicle id="41" depart="41.00">
        <route edges="148673544#4 -4983903#4 -4983903#3 -5047762#4 -5047762#3 -5047762#2 -5047762#0 -29986485#0 251116698#2 251116698#4 338697374 338697375 251116703#0 30368912#1 30368912#2 30368912#3 30368912#5 68269035#0 68269035#3 68269035#4 68269035#5 68269035#6"/>
    </vehicle>
    <vehicle id="42" depart="42.00">
        <route edges="-85710087#1 30368912#1 30368912#2 30368912#3 30368912#5 68269035#0 68269035#3 68269035#4 68269035#5 68269035#6 68269035#7 68269035#8 31916936#0 31916936#3 31916936#6 30368915#0 -4894486#6 -4863483#1 -4863483#0"/>
    </vehicle>
    <vehicle id="43" depart="43.00">
        <route edges="9651925#0 9651925#1 251116708#0 251116708#1 251116700 890177706#1 251116698#0 251116698#1 251116698#2 251116698#4 338697374 338697375 251116703#0 30368912#1 30368912#2 30368912#3 30368912#5 68269035#0 68269035#3 68269035#4 68269035#5 68269035#6 68269035#7 68269035#8 31916936#0 138252406#1 138252406#2 138252406#3 138252406#4 138252407#1"/>
    </vehicle>
    <vehicle id="44" depart="44.00">
        <route edges="-139028912 139028912 -70259630#1 -70259630#0 70259631#0 70259631#1 70259631#2 439112332#0 439112332#1 -16384647#4 138248586 -138248584#4 -138248584#3 -138248584#2"/>
    </vehicle>
    <vehicle id="45" depart="45.00">
        <route edges="-139180060 -139180050#4 -139180050#3 -139180050#1 715995281 132263163#2 31637093 132278178#1 132278178#2 438394130 31637091 134963209#0 70835084#1 302934092#0 302934092#1 213895389#0 213895389#1 439112332#0 439112332#1 410085400#0 410085400#1 410085400#2 251115899#0 251115899#2 739669750 31107064 251116707#0 251116707#1 251116698#0 251116698#1 251116698#2 251116698#4 338697374 338697375 251116703#0 251116699#0 251116699#1 251116699#4"/>
    </vehicle>
    <vehicle id="46" depart="46.00">
        <route edges="488582586 -132278178#2 -132278178#1 -31637093 -132263163#2 -132263163#1 132263166#0 132263166#1 132263166#2 132278177#3"/>
    </vehicle>
    <vehicle id="47" depart="47.00">
        <route edges="-138249620 -82094009#11 -82094009#10 -82094009#9 -82094009#8 -82094009#7 -82094009#6 -82094009#5"/>
    </vehicle>
    <vehicle id="48" depart="48.00">
        <route edges="898489174 -5116357#1 -5116357#0 -438993482#2 -438993482#1 -438993482#0 -892669238 5014481#2 69775606#0 69775606#1 139180045#0 139180045#2"/>
    </vehicle>
    <vehicle id="49" depart="49.00">
        <route edges="82094009#11 82094009#12 16384647#0 16384647#1 16384647#2 16384647#3 16384647#4 410085400#0 410085400#1 138236774#3 438394127#2 438394128#2 304114783#2 304114783#3 304114783#4 304114783#5 304114783#6 304114783#7 304114783#8 351653997 251115898#0 132278181#0 132278181#2 132278178#1 132278178#2 -488582586 -228336105#1 -1013203759 5014481#0 5014481#2"/>
    </vehicle>
    <vehicle id="50" depart="50.00">
        <route edges="-128978935#0 -139184568#1 213895389#0 213895389#1 439112332#0 439112332#1 410085400#0 410085400#1 410085400#2"/>
    </vehicle>
    <vehicle id="51" depart="51.00">
        <route edges="304114783#4 304114783#5 304114783#6 304114783#7 304114783#8 351653997 251115898#0 251115900#0 251115900#2 -132263163#2 -132263163#1 139180050#0 139180050#2"/>
    </vehicle>
    <vehicle id="52" depart="52.00">
        <route edges="-4983903#4 -4983903#3 -5047762#4 -5047762#3 -5047762#2 138248584#0 138248584#1 138248584#2 -82094009#5 -82094009#4 -82094009#3 -82094009#2 -82094009#1 895232219#0 251116700 251116706#0 251116706#1"/>
    </vehicle>
    <vehicle id="53" depart="53.00">
        <route edges="-139184568#1 -139184570#0 -69775594#9 -69775594#5 -69775594#4 -69775594#2 -69775594#1 -69775594#0 -449586350#1 -449586350#0 -69775595#5 -69775595#4 -69775595#3 -69775595#2 -69775595#1 -69775595#0 4858965#1 4858965#3 4858965#4 4858965#5 4858965#6 4858965#7 4858965#8 4858965#9 4858965#10 4858965#11 4858965#12 136458345#0"/>
    </vehicle>
    <vehicle id="54" depart="54.00">
        <route edges="136458346#2 136458346#3 -136458346#3 -136458346#2 -136458346#1 -136458346#0 -4858965#4 -4858965#3 -4858965#1 69775595#0 69775595#1 69775595#2 69775595#3 69775595#4 69775595#5 449586350#0 449586350#1 69775594#0 69775594#1 69775594#2 69775594#4 69775594#5 69775594#9 139184570#0 213895389#0 213895389#1 -70259631#2 -70259631#1 -70259631#0 70259631#0 70259631#1 70259631#2"/>
    </vehicle>
    <vehicle id="55" depart="55.00">
        <route edges="5075032#1 5075032#2 5047762#3 5047762#4 4983903#3 4983903#4 -148673544#4 -148673544#3 -148673544#2 -148673544#1 -139180055 4992525#1 4992525#2 4992525#3 4992525#4 310942161 -310942163#1 -4992525#4"/>
    </vehicle>
    <vehicle id="56" depart="56.00">
        <route edges="138249621#1 138249621#4 -138249621#4 -138249621#1 -138249621#0 70259631#0 70259631#1 70259631#2 304114783#2 304114783#3 304114783#4 304114783#5 304114783#6 304114783#7 304114783#8 139180058#1 351654002#0 351654002#1 351654002#2 351654002#3 -351654002#3 -351654002#2"/>
    </vehicle>
    <vehicle id="57" depart="57.00">
        <route edges="69775594#0 69775594#1 148673544#4 -4983903#4 -4983903#3 -5047762#4 -5047762#3 5047762#3 5047762#4"/>
    </vehicle>
    <vehicle id="58" depart="58.00">
        <route edges="-5047762#2 138248584#0 138248584#1 138248584#2 -82094009#5 -82094009#4 -82094009#3 -82094009#2 -82094009#1 895232219#0 251116700 251116706#0"/>
    </vehicle>
    <vehicle id="59" depart="59.00">
        <route edges="228336105#0 488582586 -488582586 -228336105#1 -1013203759 -228336106#0 -488582588 4992525#1 4992525#2 4992525#3 4992525#4 310942161 137968437#1 1019981124#0 1019981124#1 1019981124#3 1019981124#4 1019981124#6 1019981124#7 25132368#0 25132368#1 25132386 -25132386"/>
    </vehicle>
    <vehicle id="60" depart="60.00">
        <route edges="4858965#1 4858965#3 4858965#4 -4858965#4 -4858965#3 -4858965#1 69775595#0 69775595#1 69775595#2 69775595#3 69775595#4 69775595#5 449586350#0 -883287851 -69775600 -214208148#2 -438993482#0 -139180055 149775756 228336106#0 228336106#2 228336105#0 488582586 -132278178#2 -132278178#1 -31637093 -132263163#2 -132263163#1 139180050#0 139180050#2 139180050#4"/>
    </vehicle>
    <vehicle id="61" depart="61.00">
        <route edges="4858965#9 4858965#10 4858965#11 4858965#12 136458345#0 136458345#1 136458345#2 -136458345#2 -136458345#1 -136458345#0 -4858965#12 -4858965#11 -4858965#10 -4858965#9 -4858965#8 -4858965#7 -4858965#6 -4858965#5 -4858965#4 -4858965#3 -4858965#1 69775595#0 69775595#1 69775595#2 69775595#3 69775595#4 69775595#5 449586350#0 -883287851 -69775600 -214208148#2 -438993482#0 -139180055 149775756 228336106#0 228336106#2 228336105#0 488582586 -132278178#2 -132278178#1 -31637093 -132263163#2 -132263163#1 139180050#0 139180050#2 -5047733#4 -5047733#3 -5047733#2 -5047733#1 -139180046#1 -139180046#0 139180046#0"/>
    </vehicle>
    <vehicle id="62" depart="62.00">
        <route edges="-1013203759 228336106#2 228336105#0 488582586 438394130 31637091 134963209#0 70835084#1 302934092#0 302934092#1 213895389#0 213895389#1 -138249622#0 -69002750#2 -69002750#1"/>
    </vehicle>
    <vehicle id="63" depart="63.00">
        <route edges="-132278178#2 -132278178#1 132278178#1 132278178#2 -488582586 -228336105#1 -1013203759 -228336106#0 -488582588 139180055 438993482#0 214208148#2 69775600"/>
    </vehicle>
    <vehicle id="67" depart="67.00">
        <route edges="-138294878#3 -138294878#2 -138294878#1 30368915#0 5000714#1 5000714#2 5000714#3 5000714#4 47401904#2 47401904#3 47401904#5 47401904#8 47401904#11 137887472 25314035 -310942163#1 -4992525#4 -4992525#3 -4992525#2 -4992525#1 149775756 228336106#0 228336106#2 228336105#0 488582586 438394130 31637091 134963209#0 70835084#1 302934092#0 302934092#1 213895389#0 213895389#1 439112332#0 439112332#1 -16384647#4 138248586"/>
    </vehicle>
    <vehicle id="68" depart="68.00">
        <route edges="-138249622#0 -69002750#2 -69002750#1 -69002750#0 -69775594#9 -69775594#5 -69775594#4 -69775594#2 -69775594#1 -69775594#0 -449586350#1 -449586350#0 -69775595#5 -69775595#4 -69775595#3 -69775595#2 -69775595#1 -69775595#0 4858965#1 4858965#3 4858965#4 4858965#5 4858965#6 4858965#7 4858965#8 4858965#9 4858965#10"/>
    </vehicle>
    <vehicle id="69" depart="69.00">
        <route edges="4858965#11 4858965#12 136458345#0 136458345#1 136458345#2 -136458345#2 -136458345#1 -136458345#0 -4858965#12 -4858965#11 -4858965#10 -4858965#9 -4858965#8 -4858965#7 -4858965#6 -4858965#5 -4858965#4 -4858965#3 -4858965#1 69775595#0 69775595#1 69775595#2 69775595#3 69775595#4 69775595#5 449586350#0 449586350#1 69775594#0 69775594#1 69775594#2 69775594#4 69775594#5 69775594#9 139184570#0 213895389#0 213895389#1 439112332#0 439112332#1 -16384647#4 -16384647#3 -16384647#2 -16384647#1"/>
    </vehicle>
    <vehicle id="70" depart="70.00">
        <route edges="138236774#3 438394127#2 438394128#2 304114783#2 304114783#3 304114783#4 304114783#5 304114783#6 304114783#7 304114783#8 351653997 251115898#0 132278181#0 132278181#2 132278178#1 132278178#2 438394130 31637091 139180063#1"/>
    </vehicle>
    <vehicle id="71" depart="71.00">
        <route edges="-4983903#3 -4983903#2 -227915963 -5075032#0 5075032#0"/>
    </vehicle>
    <vehicle id="72" depart="72.00">
        <route edges="132263165 -68698841#1 -139180060 -139180050#4 -139180050#3 -139180050#1 715995281 132263163#2 31637093 132278178#1 132278178#2 -488582586 -228336105#1 -1013203759 -228336106#0 -488582588 139180055 438993482#0 214208148#2 69775600 883287851 -449586350#0 -69775595#5 -69775595#4 -69775595#3 -69775595#2 -69775595#1 -69775595#0 4858965#1 4858965#3 4858965#4 4858965#5 -4858965#5"/>
    </vehicle>
    <vehicle id="73" depart="73.00">
        <route edges="139180046#1 5047733#1 5047733#2 5047733#3 5047733#4 -139180050#3 -139180050#1 715995281 132263163#2 31637093 132278178#1 132278178#2 -488582586 -228336105#1 -1013203759 -228336106#0 -488582588 139180055 438993482#0"/>
    </vehicle>
    <vehicle id="74" depart="74.00">
        <route edges="-47401904#2 47401904#2 -4863483#2 4894486#6 -30368915#0 -31916936#6 -31916936#3 -31916936#0 -68269035#8 -68269035#7 -68269035#6 -68269035#5 -68269035#4 -68269035#3"/>
    </vehicle>
    <vehicle id="76" depart="76.00">
        <route edges="132278181#0 132278181#2 132278178#1 132278178#2 438394130 31637091 134963209#0 70835084#1 304114783#8 139180058#1 351654002#0 351654002#1 351654002#2 351654002#3 139028902#0"/>
    </vehicle>
    <vehicle id="77" depart="77.00">
        <route edges="-139289866#0 -139289860#0 -213551866#2 -213551866#1 -4863579#4 -4863579#3 -4863579#2 -4863579#1 -4863579#0"/>
    </vehicle>
    <vehicle id="78" depart="78.00">
        <route edges="-69775594#4 -69775594#2 -69775594#1 -69775594#0 -449586350#1 -449586350#0 -69775595#5 -69775595#4 -69775595#3 -69775595#2 -69775595#1 -69775595#0 4858965#1 4858965#3 4858965#4 4858965#5 136458347#0 136458347#2 136458347#3 136458347#5 184052760#0"/>
    </vehicle>
    <vehicle id="79" depart="79.00">
        <route edges="-4863579#0 -47401904#10 -47401904#7 -47401904#3 -4863483#2 -4863483#1"/>
    </vehicle>
    <vehicle id="80" depart="80.00">
        <route edges="-138252405#0 -4858965#5 4979727#0 4979727#1 4979727#2 4979727#3 4979727#4 4979727#5 4979727#6 -68269035#8 -68269035#7 -68269035#6 -68269035#5 -68269035#4 -68269035#3 -68269035#0 -30368912#5 -30368912#3 -30368912#2 -30368912#1 251116702#1 251116702#2"/>
    </vehicle>
    <vehicle id="81" depart="81.00">
        <route edges="-4863484#2 47401904#3 47401904#5 47401904#8 47401904#11 137887472 25314035 -310942163#1 -4992525#4 -4992525#3 -4992525#2 -4992525#1 149775756 228336106#0 228336106#2 228336105#0 488582586 438394130 31637091 134963209#0 70835084#1 302934092#0 302934092#1 -139184570#0 69002750#0 69002750#1"/>
    </vehicle>
    <vehicle id="82" depart="82.00">
        <route edges="5014481#2 -69775601#3 -69775601#2 -69775601#0 69775600 883287851 -449586350#0 -69775595#5 -69775595#4 -69775595#3 -69775595#2 -69775595#1 -69775595#0 4858965#1 4858965#3 4858965#4 4858965#5 138252405#0 138252405#1 -138252405#1 -138252405#0"/>
    </vehicle>
    <vehicle id="83" depart="83.00">
        <route edges="-488582586 -228336105#1 228336105#0 488582586 438394130 31637091 134963209#0 70835084#1 302934092#0 302934092#1 213895389#0 213895389#1 439112332#0 439112332#1 410085400#0 410085400#1 410085400#2 251115899#0 251115899#2 739669750 31107064 251116707#0 251116707#1 251116698#0 251116698#1 251116698#2 251116698#4 338697374 338697375 251116703#0 30368912#1 30368912#2 30368912#3 30368912#5"/>
    </vehicle>
    <vehicle id="84" depart="84.00">
        <route edges="-4858965#3 -4858965#1 69775595#0 69775595#1 69775595#2 69775595#3 69775595#4 69775595#5 449586350#0 449586350#1 69775594#0 69775594#1 69775594#2 69775594#4 69775594#5 69775594#9 139184570#0 213895389#0 213895389#1 439112332#0 439112332#1 -16384647#4 -16384647#3"/>
    </vehicle>
    <vehicle id="85" depart="85.00">
        <route edges="69775601#3 69775606#0 69775606#1 31307128#1 351653997 251115898#0 251115900#0 251115900#2 132278177#0 132278177#1 132278177#3 132278177#5 147353461#0"/>
    </vehicle>
    <vehicle id="86" depart="86.00">
        <route edges="138236774#1 138236774#2 138236774#3 438394127#2 438394128#2 304114783#2 304114783#3 304114783#4 304114783#5 304114783#6 304114783#7 304114783#8 351653997 251115898#0 132278181#0 132278181#2 132278178#1 132278178#2 -488582586 -228336105#1 -1013203759 -228336106#0 -488582588 4992525#1 4992525#2 4992525#3 4992525#4 310942161 -25314035 -137887472 -47401904#11 4863579#0 4863579#1 4863579#2"/>
    </vehicle>
    <vehicle id="87" depart="87.00">
        <route edges="4979727#1 4979727#2 4979727#3 4979727#4 4979727#5 4979727#6 31916936#0 138252406#1 138252406#2 138252406#3 138252406#4 69775595#0 69775595#1 69775595#2 69775595#3 69775595#4 69775595#5 449586350#0 449586350#1 69775594#0 69775594#1 -69775594#1 -69775594#0 -449586350#1"/>
    </vehicle>
    <vehicle id="88" depart="88.00">
        <route edges="-139180046#1 -139180046#0 139180053 -139180050#8 -139180050#4 -139180050#3 -139180050#1 715995281 132263163#2 31637093 132278178#1 132278178#2 438394130 31637091 134963209#0"/>
    </vehicle>
    <vehicle id="89" depart="89.00">
        <route edges="132263165 -68698841#1 -139180060 -139180050#4 -139180050#3 -139180050#1 715995281 132263163#2 31637093 132278178#1 132278178#2 438394130 31637091 134963209#0 70835084#1 302934092#0 302934092#1 213895389#0 213895389#1 439112332#0 439112332#1 410085400#0 410085400#1 410085400#2 251115899#0 251115899#2 30702065 47313949#0 47313949#1 47313949#2 136510155 138236774#0 138236774#1 138236774#2"/>
    </vehicle>
    <vehicle id="90" depart="90.00">
        <route edges="438394125 251115901 439112322 438394130 31637091 134963209#0 70835084#1 302934092#0 302934092#1 213895389#0 304114783#3"/>
    </vehicle>
    <vehicle id="91" depart="91.00">
        <route edges="82094009#9 82094009#10 82094009#11 82094009#12 16384647#0 16384647#1 16384647#2 16384647#3 16384647#4 410085400#0 410085400#1 138236774#3 438394127#2 438394128#2 304114783#2 304114783#3 304114783#4 304114783#5 304114783#6 304114783#7 304114783#8 351653997 251115898#0 251115900#0 251115900#2 -132263163#2 -132263163#1 139180050#0 139180050#2 139180050#4 -139180050#4"/>
    </vehicle>
    <vehicle id="92" depart="92.00">
        <route edges="-892669238 5014481#2 -69775601#3 -69775601#2 -69775601#0 69775600 883287851 -449586350#0 -69775595#5 -69775595#4 -69775595#3 -69775595#2"/>
    </vehicle>
    <vehicle id="93" depart="93.00">
        <route edges="5047733#0 139180049#0 139180049#2 -25132386 -25132368#1 -25132368#0 -1019981124#7 -1019981124#6 -1019981124#5 -1019981124#3 -1019981124#1 -1019981124#0 -137968437#2 -25314035 -137887472 -47401904#11 -47401904#10 -47401904#7 -47401904#3 -4863483#2 4894486#6 -30368915#0 -31916936#6 -31916936#3 -31916936#0 -68269035#8 -68269035#7 -68269035#6 -68269035#5 -68269035#4 -68269035#3 -68269035#0 -30368912#5 -30368912#3 -30368912#2 -30368912#1 251116699#0 251116699#1 4979814#0 4979814#1 4979814#2 -4979814#2 -4979814#1"/>
    </vehicle>
    <vehicle id="94" depart="94.00">
        <route edges="-438993482#0 438993482#0 214208148#2 69775600 883287851 -449586350#0 -69775595#5 -69775595#4 -69775595#3 -69775595#2 -69775595#1 -69775595#0 4858965#1 4858965#3 4858965#4 4858965#5 136458347#0 136458347#2 136458347#3"/>
    </vehicle>
    <vehicle id="95" depart="95.00">
        <route edges="132263163#2 31637093 132278178#1 132278178#2 -488582586 -228336105#1 -1013203759 -228336106#0 -488582588 4992525#1 4992525#2 4992525#3 4992525#4 310942161 -25314035 -137887472 -47401904#11 -47401904#10 -47401904#7 -5009671"/>
    </vehicle>
    <vehicle id="96" depart="96.00">
        <route edges="-4894486#6 4894486#6 -30368915#0 -31916936#6 -31916936#3 138252406#1 138252406#2 138252406#3 138252406#4 69775595#0 69775595#1 69775595#2 69775595#3"/>
    </vehicle>
    <vehicle id="97" depart="97.00">